#======================================================================

# CRYSTAL DATA

#----------------------------------------------------------------------

data_VESTA_phase_1


_pd_phase_name                         '[123]tetramantane_90K 0GPa'
_cell_length_a                         7.614(3)
_cell_length_b                         7.644(3)
_cell_length_c                         7.665(3)
_cell_angle_alpha                      61.053(7)
_cell_angle_beta                       73.385(7)
_cell_angle_gamma                      73.558(7)
_symmetry_space_group_name_H-M         'P 1  '
_symmetry_Int_Tables_number            1

loop_
_symmetry_equiv_pos_as_xyz
   'x, y, z'

loop_
   _atom_site_label
   _atom_site_occupancy
   _atom_site_fract_x
   _atom_site_fract_y
   _atom_site_fract_z
   _atom_site_thermal_displace_type
   _atom_site_B_iso_or_equiv
   _atom_site_type_symbol
   1        1.0    0.34490      0.48150      0.45840     Biso  1.000  C
   2        1.0    0.41170      0.25200      0.51870     Biso  1.000  C
   3        1.0    0.62350      0.20530      0.45510     Biso  1.000  C
   4        1.0    0.67640      0.31940      0.22420     Biso  1.000  C
   5        1.0    0.61280      0.54830      0.15940     Biso  1.000  C
   6        1.0    0.39990      0.59640      0.22560     Biso  1.000  C
   7        1.0    0.33640      0.82620      0.15450     Biso  1.000  C
   8        1.0    0.43640      0.89820      0.24950     Biso  1.000  C
   9        1.0    0.64810      0.85020      0.18810     Biso  1.000  C
   10       1.0    0.70810      0.62120      0.25850     Biso  1.000  C
   11       1.0    0.65660      0.50490      0.49020     Biso  1.000  C
   12       1.0    0.72200      0.27620      0.55280     Biso  1.000  C
   13       1.0    0.44370      0.55500      0.55790     Biso  1.000  C
   14       1.0    0.38530      0.45360      0.78980     Biso  1.000  C
   15       1.0    0.17280      0.50220      0.85310     Biso  1.000  C
   16       1.0    0.07480      0.42810      0.75730     Biso  1.000  C
   17       1.0    0.13220      0.53160      0.52490     Biso  1.000  C
   18       1.0    0.07310      0.76300      0.44760     Biso  1.000  C
   19       1.0    0.12530      0.87310      0.21730     Biso  1.000  C
   20       1.0    0.38110      0.78730      0.48170     Biso  1.000  C
   21       1.0    0.16830      0.83670      0.54670     Biso  1.000  C
   22       1.0    0.11360      0.73260      0.77730     Biso  1.000  C
   2A       1.0    0.37720      0.17430      0.66720     Biso  1.000  H
   2B       1.0    0.34930      0.20880      0.45260     Biso  1.000  H
   3        1.0    0.66440      0.05610      0.49870     Biso  1.000  H
   4A       1.0    0.61590      0.27460      0.15790     Biso  1.000  H
   4B       1.0    0.81280      0.28960      0.18230     Biso  1.000  H
   5        1.0    0.64560      0.62300      0.00870     Biso  1.000  H
   6        1.0    0.33690      0.55060      0.16080     Biso  1.000  H
   7        1.0    0.37020      0.89720      0.00350     Biso  1.000  H
   8        1.0    0.39640      1.04790      0.20370     Biso  1.000  H
   9A       1.0    0.68420      0.92210      0.03910     Biso  1.000  H
   9B       1.0    0.71080      0.89680      0.25080     Biso  1.000  H
   10       1.0    0.84610      0.59050      0.21730     Biso  1.000  H
   11       1.0    0.72200      0.54840      0.55500     Biso  1.000  H
   12A      1.0    0.85830      0.24850      0.50910     Biso  1.000  H
   12B      1.0    0.69360      0.20020      0.70210     Biso  1.000  H
   14A      1.0    0.44810      0.50220      0.85070     Biso  1.000  H
   14B      1.0    0.42530      0.30480      0.84170     Biso  1.000  H
   15       1.0    0.13800      0.43320      1.00410     Biso  1.000  H
   16A      1.0   -0.06180      0.46150      0.79540     Biso  1.000  H
   16B      1.0    0.11000      0.27900      0.80820     Biso  1.000  H
   17       1.0    0.06720      0.48360      0.46390     Biso  1.000  H
   18       1.0   -0.06480      0.79510      0.48760     Biso  1.000  H
   19A      1.0    0.08430      1.02130      0.17120     Biso  1.000  H
   19B      1.0    0.06230      0.82820      0.15340     Biso  1.000  H
   20       1.0    0.44420      0.83500      0.54480     Biso  1.000  H
   21       1.0    0.12920      0.98690      0.49740     Biso  1.000  H
   22A      1.0   -0.02270      0.76630      0.81730     Biso  1.000  H
   22B      1.0    0.17530      0.78130      0.83910     Biso  1.000  H
